Version 4
SHEET 1 1648 788
WIRE 336 80 176 80
WIRE 176 96 176 80
WIRE 336 112 336 80
WIRE 128 176 80 176
WIRE 176 208 176 192
WIRE 336 208 336 192
WIRE 80 224 80 176
WIRE 80 320 80 304
FLAG 336 208 0
FLAG 176 208 0
FLAG 80 320 0
SYMBOL nmos 128 96 R0
SYMATTR InstName M1
SYMATTR Value 2N7002
SYMBOL voltage 80 208 R0
SYMATTR InstName VC
SYMATTR Value 2
SYMBOL voltage 336 96 R0
SYMATTR InstName VD
SYMATTR Value 5
TEXT 432 80 Left 2 !*---------- 2N7002 Spice Model ----------\n.SUBCKT N7002 10 20 30 \n*     TERMINALS:  D  G  S\nM1 1 2 3 3 NMOS L = 1E-006 W = 1E-006 \nRD 10 1 0.976 \nRS 30 3 0.001 \nRG 20 2 160.6 \nCGS 2 3 2E-011 \nEGD 12 0 2 1 1 \nVFB 14 0 0 \nFFB 2 1 VFB 1 \nCGD 13 14 5.9E-011 \nR1 13 0 1 \nD1 12 13 DLIM \nDDG 15 14 DCGD \nR2 12 15 1 \nD2 15 0 DLIM \nDSD 3 10 DSUB \n.MODEL NMOS NMOS LEVEL = 3 VMAX = 1E+006 ETA = 0 VTO = 2.154 \n+ TOX = 6E-008 NSUB = 1E+016 KP = 0.4654 KAPPA = 1E-015 U0 = 400 \n.MODEL DCGD D CJO = 1.2E-011 VJ = 0.6 M = 0.6 \n.MODEL DSUB D IS = 6.808E-010 N = 1.576 RS = 0.1408 BV = 72 CJO = 8E-012 VJ = 0.8 M = 0.6474 \n.MODEL DLIM D IS = 0.0001 \n.ENDS\n*Diodes N7002 Spice Model v0 Last Revised 2017/2/9
TEXT 56 368 Left 2 !.dc VD 0 5 0.0001 VC 2 10 1
