Version 4
SHEET 1 1696 700
WIRE 304 80 304 64
WIRE 304 192 304 160
WIRE 304 192 192 192
WIRE 384 192 304 192
WIRE 192 208 192 192
WIRE 384 208 384 192
WIRE 192 320 192 288
WIRE 192 320 128 320
WIRE 288 320 192 320
WIRE 384 320 384 288
WIRE 384 320 320 320
WIRE 288 384 288 320
WIRE 288 384 240 384
WIRE 464 384 432 384
WIRE 128 400 128 320
WIRE 144 400 128 400
WIRE 320 400 320 320
WIRE 336 400 320 400
WIRE 256 416 240 416
WIRE 448 416 432 416
WIRE 288 480 288 384
WIRE 464 480 464 384
WIRE 464 480 288 480
WIRE 256 512 256 416
WIRE 336 512 256 512
WIRE 448 512 448 416
WIRE 448 512 336 512
WIRE 336 528 336 512
FLAG 304 64 0
FLAG 336 528 0
SYMBOL voltage 304 176 R180
WINDOW 0 24 96 Left 2
WINDOW 3 24 16 Left 2
WINDOW 123 0 0 Left 0
WINDOW 39 0 0 Left 0
SYMATTR InstName V1
SYMATTR Value 10
SYMBOL res 176 192 R0
SYMATTR InstName R1
SYMATTR Value 1k
SYMBOL res 368 192 R0
SYMATTR InstName R2
SYMATTR Value {R}
SYMBOL AutoGenerated\\N7002 384 400 R0
SYMATTR InstName U1
SYMBOL AutoGenerated\\N7002 192 400 R0
SYMATTR InstName U2
TEXT 520 -8 Left 2 !*---------- 2N7002 Spice Model ----------\n.SUBCKT N7002 10 20 30 \n*     TERMINALS:  D  G  S\nM1 1 2 3 3 NMOS L = 1E-006 W = 1E-006 \nRD 10 1 0.976 \nRS 30 3 0.001 \nRG 20 2 160.6 \nCGS 2 3 2E-011 \nEGD 12 0 2 1 1 \nVFB 14 0 0 \nFFB 2 1 VFB 1 \nCGD 13 14 5.9E-011 \nR1 13 0 1 \nD1 12 13 DLIM \nDDG 15 14 DCGD \nR2 12 15 1 \nD2 15 0 DLIM \nDSD 3 10 DSUB \n.MODEL NMOS NMOS LEVEL = 3 VMAX = 1E+006 ETA = 0 VTO = 2.154 \n+ TOX = 6E-008 NSUB = 1E+016 KP = 0.4654 KAPPA = 1E-015 U0 = 400 \n.MODEL DCGD D CJO = 1.2E-011 VJ = 0.6 M = 0.6 \n.MODEL DSUB D IS = 6.808E-010 N = 1.576 RS = 0.1408 BV = 72 CJO = 8E-012 VJ = 0.8 M = 0.6474 \n.MODEL DLIM D IS = 0.0001 \n.ENDS\n*Diodes N7002 Spice Model v0 Last Revised 2017/2/9
TEXT 152 568 Left 2 !.step param R 0.001 100k 1k
TEXT 160 608 Left 2 !.op
