Version 4
SHEET 1 1560 680
WIRE 336 -16 80 -16
WIRE 528 -16 448 -16
WIRE 656 -16 592 -16
WIRE 720 -16 656 -16
WIRE 832 -16 784 -16
WIRE 976 -16 832 -16
WIRE 1200 -16 976 -16
WIRE 1376 -16 1296 -16
WIRE 1456 -16 1376 -16
WIRE 976 0 976 -16
WIRE 448 16 448 -16
WIRE 1376 64 1376 -16
WIRE 80 80 80 -16
WIRE 336 80 336 -16
WIRE 656 80 656 -16
WIRE 832 80 832 -16
WIRE 448 112 448 96
WIRE 496 112 448 112
WIRE 976 112 976 80
WIRE 1248 112 1248 48
WIRE 1248 112 976 112
WIRE 496 128 496 112
WIRE 448 144 448 112
WIRE 976 160 976 112
WIRE 1376 160 1376 128
WIRE 1408 208 1200 208
WIRE 80 240 80 160
WIRE 336 240 336 160
WIRE 336 240 80 240
WIRE 448 240 448 224
WIRE 656 240 656 144
WIRE 736 240 656 240
WIRE 832 240 832 144
WIRE 832 240 736 240
WIRE 336 256 336 240
WIRE 736 256 736 240
WIRE 976 272 976 224
WIRE 1424 272 1360 272
WIRE 1232 288 1104 288
WIRE 1424 304 1360 304
WIRE 1200 320 1200 208
WIRE 1232 320 1200 320
WIRE 1408 336 1408 208
WIRE 1408 336 1360 336
WIRE 1104 352 1104 288
WIRE 1424 352 1424 304
WIRE 976 384 976 352
WIRE 1104 464 1104 432
FLAG 336 256 0
FLAG 496 128 0
FLAG 736 256 0
FLAG 448 -16 Vin
FLAG 976 384 0
FLAG 1376 160 0
FLAG 1456 -16 Vcc
FLAG 1104 464 0
FLAG 1424 352 0
FLAG 1424 272 Vcc
SYMBOL Misc\\signal 80 64 R0
WINDOW 123 0 0 Left 0
WINDOW 39 24 132 Left 2
SYMATTR SpiceLine Rser=0.00001
SYMATTR InstName V1
SYMATTR Value SINE(0 311 60)
SYMBOL ind2 352 176 R180
WINDOW 0 36 80 Left 2
WINDOW 3 36 40 Left 2
SYMATTR InstName L1
SYMATTR Value 336.11µ
SYMATTR Type ind
SYMBOL ind2 464 112 R180
WINDOW 0 36 80 Left 2
WINDOW 3 36 40 Left 2
SYMATTR InstName L2
SYMATTR Value 1µ
SYMATTR Type ind
SYMBOL ind2 464 240 R180
WINDOW 0 36 80 Left 2
WINDOW 3 36 40 Left 2
SYMATTR InstName L3
SYMATTR Value 1µ
SYMATTR Type ind
SYMBOL cap 592 -32 R90
WINDOW 0 0 32 VBottom 2
WINDOW 3 32 32 VTop 2
SYMATTR InstName C1
SYMATTR Value 50µ
SYMBOL diode 672 144 R180
WINDOW 0 24 64 Left 2
WINDOW 3 24 0 Left 2
SYMATTR InstName D1
SYMATTR Value d1n4007
SYMBOL diode 720 0 R270
WINDOW 0 32 32 VTop 2
WINDOW 3 0 32 VBottom 2
SYMATTR InstName D2
SYMATTR Value d1n4007
SYMBOL cap 816 80 R0
SYMATTR InstName C2
SYMATTR Value 50µ
SYMBOL res 960 -16 R0
SYMATTR InstName R1
SYMATTR Value 3800
SYMBOL pnp 1200 48 R270
WINDOW 0 91 17 VRight 2
WINDOW 3 91 53 VRight 2
SYMATTR InstName Q1
SYMBOL cap 1360 64 R0
SYMATTR InstName C3
SYMATTR Value 100n
SYMBOL AutoGenerated\\DI_1N4750A 976 192 R90
WINDOW 0 -26 -48 VTop 2
WINDOW 3 31 -107 VBottom 2
SYMATTR InstName U1
SYMBOL res 960 256 R0
SYMATTR InstName R2
SYMATTR Value 35
SYMBOL Misc\\signal 1104 336 R0
WINDOW 123 0 0 Left 0
WINDOW 39 24 132 Left 2
SYMATTR InstName V2
SYMATTR Value SINE(0 10 60)
SYMATTR SpiceLine Rser=0.00001
SYMBOL AutoGenerated\\LMX24_LM2902 1296 304 R0
SYMATTR InstName U2
TEXT 304 -64 Left 2 !K L1 L2 L3 1
TEXT 88 328 Left 2 !.lib C:\\Users\\gabry\\Documents\\LTspiceXVII\\1n4007.txt
TEXT 88 296 Left 2 !.tran 200m
