Version 4
SHEET 1 1864 740
WIRE 1200 -96 1184 -96
WIRE 1120 -80 816 -80
WIRE 1328 -80 1312 -80
WIRE 1376 -80 1328 -80
WIRE 1312 -64 1312 -80
WIRE 1312 -64 1184 -64
WIRE 1328 -48 1328 -80
WIRE 480 16 448 16
WIRE 1200 16 1200 -96
WIRE 1200 16 1120 16
WIRE 352 32 96 32
WIRE 448 32 448 16
WIRE 528 32 448 32
WIRE 624 32 592 32
WIRE 672 32 624 32
WIRE 816 32 816 -80
WIRE 816 32 672 32
WIRE 672 48 672 32
WIRE 1088 48 1088 32
WIRE 1088 48 1056 48
WIRE 992 64 928 64
WIRE 1088 80 1056 80
WIRE 1328 80 1328 32
WIRE 1328 80 1168 80
WIRE 992 96 960 96
WIRE 1088 96 1088 80
WIRE 1072 112 1056 112
WIRE 352 128 352 32
WIRE 448 128 448 112
WIRE 480 128 448 128
WIRE 96 144 96 32
WIRE 480 144 480 128
WIRE 672 144 672 112
WIRE 816 144 816 112
WIRE 928 144 928 64
WIRE 928 144 816 144
WIRE 448 160 448 128
WIRE 1072 160 1072 112
WIRE 1120 160 1120 16
WIRE 1120 160 1072 160
WIRE 1328 160 1328 80
WIRE 816 176 816 144
WIRE 960 176 960 96
WIRE 1168 176 1168 80
WIRE 1168 176 960 176
WIRE 96 240 96 224
WIRE 304 240 96 240
WIRE 352 240 352 208
WIRE 352 240 304 240
WIRE 528 240 448 240
WIRE 624 240 624 32
WIRE 624 240 592 240
WIRE 1328 256 1328 240
WIRE 304 272 304 240
WIRE 816 272 816 240
WIRE 496 416 400 416
WIRE 624 416 560 416
WIRE 688 416 624 416
WIRE 816 416 752 416
WIRE 848 416 816 416
WIRE 960 416 848 416
WIRE 1056 416 960 416
WIRE 1232 416 1152 416
WIRE 1296 416 1232 416
WIRE 960 448 960 416
WIRE 1232 448 1232 416
WIRE 624 464 624 416
WIRE 816 464 816 416
WIRE 960 544 960 528
WIRE 1104 544 1104 480
WIRE 1104 544 960 544
WIRE 624 560 624 528
WIRE 816 560 816 528
WIRE 816 560 624 560
WIRE 960 560 960 544
WIRE 816 576 816 560
WIRE 1232 576 1232 512
WIRE 1344 576 1344 528
WIRE 960 656 960 624
FLAG 304 272 0
FLAG 480 16 Vin+
FLAG 400 416 Vin+
FLAG 848 416 Vc3
FLAG 816 576 0
FLAG 960 656 0
FLAG 1232 576 0
FLAG 1296 416 VCC
FLAG 1344 576 0
FLAG 1344 528 VEE
FLAG 816 272 0
FLAG 672 144 0
FLAG 1328 256 0
FLAG 1088 32 VCC
FLAG 1088 96 VEE
FLAG 1376 -80 Vout
FLAG 480 144 0
SYMBOL Misc\\signal 96 128 R0
WINDOW 3 -28 140 Left 2
WINDOW 123 0 0 Left 0
WINDOW 39 -27 167 Left 2
SYMATTR Value SINE(0 311 60)
SYMATTR SpiceLine Rser=0.00001
SYMATTR InstName V1
SYMBOL ind2 368 224 R180
WINDOW 0 36 80 Left 2
WINDOW 3 36 40 Left 2
SYMATTR InstName L1
SYMATTR Value 336.11µ
SYMATTR Type ind
SYMBOL ind2 464 128 R180
WINDOW 0 36 80 Left 2
WINDOW 3 36 40 Left 2
SYMATTR InstName L2
SYMATTR Value 1µ
SYMATTR Type ind
SYMBOL ind2 464 256 R180
WINDOW 0 36 80 Left 2
WINDOW 3 36 40 Left 2
SYMATTR InstName L3
SYMATTR Value 1µ
SYMATTR Type ind
SYMBOL diode 528 48 R270
WINDOW 0 32 32 VTop 2
WINDOW 3 0 32 VBottom 2
SYMATTR InstName D1
SYMATTR Value d1n4007
SYMBOL diode 528 256 R270
WINDOW 0 32 32 VTop 2
WINDOW 3 0 32 VBottom 2
SYMATTR InstName D2
SYMATTR Value d1n4007
SYMBOL cap 656 48 R0
SYMATTR InstName C1
SYMATTR Value 9.1667m
SYMBOL res 800 16 R0
SYMATTR InstName R1
SYMATTR Value 1300
SYMBOL cap 496 432 R270
WINDOW 0 32 32 VTop 2
WINDOW 3 0 32 VBottom 2
SYMATTR InstName C2
SYMATTR Value 505.05µ
SYMBOL cap 800 464 R0
SYMATTR InstName C3
SYMATTR Value 505.05µ
SYMBOL diode 688 432 R270
WINDOW 0 32 32 VTop 2
WINDOW 3 0 32 VBottom 2
SYMATTR InstName D3
SYMATTR Value d1n4007
SYMBOL diode 640 528 R180
WINDOW 0 24 64 Left 2
WINDOW 3 24 0 Left 2
SYMATTR InstName D4
SYMATTR Value d1n4007
SYMBOL res 944 432 R0
SYMATTR InstName R2
SYMATTR Value 1108
SYMBOL zener 976 624 R180
WINDOW 0 24 64 Left 2
WINDOW 3 24 0 Left 2
SYMATTR InstName D6
SYMATTR Value UMZ27K
SYMBOL npn 1056 480 R270
SYMATTR InstName Q1
SYMATTR Value 2N3904
SYMBOL cap 1216 448 R0
SYMATTR InstName C4
SYMATTR Value 100n
SYMBOL zener 832 240 R180
WINDOW 0 24 64 Left 2
WINDOW 3 24 0 Left 2
SYMATTR InstName D5
SYMATTR Value UMZ10K
SYMBOL res 1312 -64 R0
SYMATTR InstName R3
SYMATTR Value 5k
SYMBOL res 1312 144 R0
SYMATTR InstName R4
SYMATTR Value 10k
SYMBOL AutoGenerated\\irf540 1152 -80 R0
SYMATTR InstName U2
SYMBOL AutoGenerated\\LM324 1024 80 R0
SYMATTR InstName U1
TEXT 328 -8 Left 2 !K L1 L2 L3 1
TEXT 64 336 Left 2 !.lib C:\\Users\\gabry\\Documents\\LTspiceXVII\\1n4007.txt
TEXT 64 368 Left 2 !.tran 200m
