Version 4
SHEET 1 1864 916
WIRE 480 16 448 16
WIRE 1376 16 1344 16
WIRE 352 32 96 32
WIRE 448 32 448 16
WIRE 528 32 448 32
WIRE 624 32 592 32
WIRE 672 32 624 32
WIRE 816 32 672 32
WIRE 992 32 816 32
WIRE 1280 32 992 32
WIRE 672 48 672 32
WIRE 992 48 992 32
WIRE 1424 48 1344 48
WIRE 1552 48 1424 48
WIRE 1424 80 1424 48
WIRE 352 128 352 32
WIRE 448 128 448 112
WIRE 480 128 448 128
WIRE 816 128 816 32
WIRE 96 144 96 32
WIRE 480 144 480 128
WIRE 672 144 672 112
WIRE 1264 144 1248 144
WIRE 448 160 448 128
WIRE 1184 160 1120 160
WIRE 992 176 992 128
WIRE 992 176 880 176
WIRE 1264 176 1248 176
WIRE 1184 192 1152 192
WIRE 1552 192 1552 48
WIRE 992 208 992 176
WIRE 1376 208 1376 16
WIRE 1376 208 1248 208
WIRE 96 240 96 224
WIRE 304 240 96 240
WIRE 352 240 352 208
WIRE 352 240 304 240
WIRE 528 240 448 240
WIRE 624 240 624 32
WIRE 624 240 592 240
WIRE 816 256 816 224
WIRE 928 256 816 256
WIRE 304 272 304 240
WIRE 1152 288 1152 192
WIRE 1424 288 1424 160
WIRE 1424 288 1152 288
WIRE 816 320 816 256
WIRE 992 320 992 304
WIRE 1120 320 1120 160
WIRE 1120 320 992 320
WIRE 1424 320 1424 288
WIRE 992 336 992 320
WIRE 1120 336 1120 320
WIRE 1424 416 1424 400
WIRE 1552 416 1552 272
WIRE 1552 416 1424 416
WIRE 816 432 816 400
WIRE 992 432 992 400
WIRE 1120 432 1120 400
WIRE 1424 432 1424 416
WIRE 272 528 176 528
WIRE 400 528 336 528
WIRE 464 528 400 528
WIRE 592 528 528 528
WIRE 624 528 592 528
WIRE 736 528 624 528
WIRE 832 528 736 528
WIRE 1008 528 928 528
WIRE 1072 528 1008 528
WIRE 736 560 736 528
WIRE 1008 560 1008 528
WIRE 400 576 400 528
WIRE 592 576 592 528
WIRE 736 656 736 640
WIRE 880 656 880 592
WIRE 880 656 736 656
WIRE 400 672 400 640
WIRE 592 672 592 640
WIRE 592 672 400 672
WIRE 736 672 736 656
WIRE 592 688 592 672
WIRE 1008 688 1008 624
WIRE 1120 688 1120 640
WIRE 736 768 736 736
FLAG 304 272 0
FLAG 480 16 Vin+
FLAG 176 528 Vin+
FLAG 624 528 Vc3
FLAG 592 688 0
FLAG 736 768 0
FLAG 1008 688 0
FLAG 1072 528 VCC
FLAG 1120 688 0
FLAG 1120 640 VEE
FLAG 672 144 0
FLAG 1424 432 0
FLAG 480 144 0
FLAG 1120 432 0
FLAG 992 432 0
FLAG 816 432 0
FLAG 1264 144 VCC
FLAG 1264 176 VEE
SYMBOL Misc\\signal 96 128 R0
WINDOW 3 -28 140 Left 2
WINDOW 123 0 0 Left 0
WINDOW 39 -27 167 Left 2
SYMATTR Value SINE(0 311 60)
SYMATTR SpiceLine Rser=0.00001
SYMATTR InstName V1
SYMBOL ind2 368 224 R180
WINDOW 0 36 80 Left 2
WINDOW 3 36 40 Left 2
SYMATTR InstName L1
SYMATTR Value 336.11µ
SYMATTR Type ind
SYMBOL ind2 464 128 R180
WINDOW 0 36 80 Left 2
WINDOW 3 36 40 Left 2
SYMATTR InstName L2
SYMATTR Value 1µ
SYMATTR Type ind
SYMBOL ind2 464 256 R180
WINDOW 0 36 80 Left 2
WINDOW 3 36 40 Left 2
SYMATTR InstName L3
SYMATTR Value 1µ
SYMATTR Type ind
SYMBOL diode 528 48 R270
WINDOW 0 32 32 VTop 2
WINDOW 3 0 32 VBottom 2
SYMATTR InstName D1
SYMATTR Value d1n4007
SYMBOL diode 528 256 R270
WINDOW 0 32 32 VTop 2
WINDOW 3 0 32 VBottom 2
SYMATTR InstName D2
SYMATTR Value d1n4007
SYMBOL cap 656 48 R0
SYMATTR InstName C1
SYMATTR Value 9.1667m
SYMBOL cap 272 544 R270
WINDOW 0 32 32 VTop 2
WINDOW 3 0 32 VBottom 2
SYMATTR InstName C2
SYMATTR Value 505.05µ
SYMBOL cap 576 576 R0
SYMATTR InstName C3
SYMATTR Value 505.05µ
SYMBOL diode 464 544 R270
WINDOW 0 32 32 VTop 2
WINDOW 3 0 32 VBottom 2
SYMATTR InstName D5
SYMATTR Value d1n4007
SYMBOL diode 416 640 R180
WINDOW 0 24 64 Left 2
WINDOW 3 24 0 Left 2
SYMATTR InstName D4
SYMATTR Value d1n4007
SYMBOL res 720 544 R0
SYMATTR InstName R4
SYMATTR Value 1108
SYMBOL zener 752 736 R180
WINDOW 0 24 64 Left 2
WINDOW 3 24 0 Left 2
SYMATTR InstName D6
SYMATTR Value UMZ27K
SYMBOL npn 832 592 R270
SYMATTR InstName Q1
SYMATTR Value 2N3904
SYMBOL cap 992 560 R0
SYMATTR InstName C4
SYMATTR Value 100n
SYMBOL res 1408 64 R0
SYMATTR InstName R2
SYMATTR Value 5k
SYMBOL res 1408 304 R0
SYMATTR InstName R3
SYMATTR Value 10k
SYMBOL pnp 880 224 R180
SYMATTR InstName Q2
SYMATTR Value 2N3906
SYMBOL pnp 928 208 R0
SYMATTR InstName Q3
SYMATTR Value 2N3906
SYMBOL cap 1104 336 R0
SYMATTR InstName C5
SYMATTR Value 100n
SYMBOL zener 1008 400 R180
WINDOW 0 24 64 Left 2
WINDOW 3 24 0 Left 2
SYMATTR InstName D3
SYMATTR Value UMZ10K
SYMBOL res 800 304 R0
SYMATTR InstName R5
SYMATTR Value 25k
SYMBOL res 976 32 R0
SYMATTR InstName R1
SYMATTR Value 140
SYMBOL AutoGenerated\\LM324 1216 176 R0
SYMATTR InstName U1
SYMBOL AutoGenerated\\irf540 1312 32 R0
SYMATTR InstName U2
SYMBOL res 1536 176 R0
SYMATTR InstName R6
SYMATTR Value 15
TEXT 328 -8 Left 2 !K L1 L2 L3 1
TEXT 64 336 Left 2 !.lib C:\\Users\\gabry\\Documents\\LTspiceXVII\\1n4007.txt
TEXT 64 368 Left 2 !.tran 200m
