Version 4
SHEET 1 1776 680
WIRE 224 -32 80 -32
WIRE 496 -32 224 -32
WIRE 224 -16 224 -32
WIRE 496 -16 496 -32
WIRE 432 64 320 64
WIRE 496 64 432 64
WIRE 464 80 272 80
WIRE 80 112 80 -32
WIRE 464 144 464 80
WIRE 464 144 432 144
WIRE 320 160 320 64
WIRE 336 160 320 160
WIRE 224 176 224 64
WIRE 272 176 272 80
WIRE 272 176 224 176
WIRE 496 176 432 176
WIRE 224 240 224 176
WIRE 496 240 496 176
WIRE 80 336 80 192
WIRE 224 336 224 320
WIRE 224 336 80 336
WIRE 352 336 224 336
WIRE 496 336 496 320
WIRE 496 336 352 336
WIRE 352 368 352 336
FLAG 352 368 0
FLAG 432 64 VD
FLAG 272 176 VG
FLAG 496 176 VS
SYMBOL voltage 80 96 R0
WINDOW 123 0 0 Left 0
WINDOW 39 0 0 Left 0
SYMATTR InstName V1
SYMATTR Value 9
SYMBOL res 208 -32 R0
SYMATTR InstName R1
SYMATTR Value 10k
SYMBOL res 208 224 R0
SYMATTR InstName R2
SYMATTR Value 10k
SYMBOL res 480 -32 R0
SYMATTR InstName R3
SYMATTR Value 2k
SYMBOL res 480 224 R0
SYMATTR InstName R4
SYMATTR Value 1k
SYMBOL AutoGenerated\\N7002 384 160 R0
SYMATTR InstName U1
TEXT 88 376 Left 2 !.op
TEXT 600 -176 Left 2 !*---------- 2N7002 Spice Model ----------\n.SUBCKT N7002 10 20 30 \n*     TERMINALS:  D  G  S\nM1 1 2 3 3 NMOS L = 1E-006 W = 1E-006 \nRD 10 1 0.976 \nRS 30 3 0.001 \nRG 20 2 160.6 \nCGS 2 3 2E-011 \nEGD 12 0 2 1 1 \nVFB 14 0 0 \nFFB 2 1 VFB 1 \nCGD 13 14 5.9E-011 \nR1 13 0 1 \nD1 12 13 DLIM \nDDG 15 14 DCGD \nR2 12 15 1 \nD2 15 0 DLIM \nDSD 3 10 DSUB \n.MODEL NMOS NMOS LEVEL = 3 VMAX = 1E+006 ETA = 0 VTO = 2.154 \n+ TOX = 6E-008 NSUB = 1E+016 KP = 0.4654 KAPPA = 1E-015 U0 = 400 \n.MODEL DCGD D CJO = 1.2E-011 VJ = 0.6 M = 0.6 \n.MODEL DSUB D IS = 6.808E-010 N = 1.576 RS = 0.1408 BV = 72 CJO = 8E-012 VJ = 0.8 M = 0.6474 \n.MODEL DLIM D IS = 0.0001 \n.ENDS\n*Diodes N7002 Spice Model v0 Last Revised 2017/2/9
TEXT 1080 -176 Left 2 ;--- Operating Point ---\n \nV(n001):         9               voltage\nV(vg):           4.5             voltage\nV(vd):           4.53183         voltage\nV(vs):           2.23408         voltage\nI(R4):           0.00223408      device_current\nI(R3):           0.00223408      device_current\nI(R2):           0.00045         device_current\nI(R1):           0.00045         device_current\nI(V1):           -0.00268408     device_current\nIx(u1:10):       0.00223408      subckt_current\nIx(u1:20):       -3.64009e-014   subckt_current\nIx(u1:30):       -0.00223408     subckt_current
