Version 4
SHEET 1 1920 680
WIRE 496 -96 496 -128
WIRE 496 16 496 -16
WIRE 496 128 496 96
WIRE 560 128 496 128
WIRE 496 192 496 128
WIRE 496 192 432 192
WIRE 608 256 544 256
WIRE 432 272 432 192
WIRE 448 272 432 272
WIRE 560 288 544 288
WIRE 560 320 560 288
WIRE 608 336 608 256
WIRE 608 448 608 416
FLAG 496 -128 0
FLAG 560 128 Vout
FLAG 608 448 0
FLAG 560 320 0
SYMBOL res 480 0 R0
SYMATTR InstName R1
SYMATTR Value 10k
SYMBOL voltage 608 320 R0
WINDOW 123 0 0 Left 0
WINDOW 39 0 0 Left 0
WINDOW 3 -205 161 Left 2
SYMATTR InstName Vin
SYMATTR Value PULSE(0 5 1n 1n 1n 0.6m 1m)
SYMBOL voltage 496 0 R180
WINDOW 0 24 96 Left 2
WINDOW 3 24 16 Left 2
WINDOW 123 0 0 Left 0
WINDOW 39 0 0 Left 0
SYMATTR InstName Vcc
SYMATTR Value 5
SYMBOL AutoGenerated\\N7002 496 272 R0
SYMATTR InstName U1
TEXT 632 448 Left 2 !.tran 5m
TEXT 744 -176 Left 2 !*---------- 2N7002 Spice Model ----------\n.SUBCKT N7002 10 20 30 \n*     TERMINALS:  D  G  S\nM1 1 2 3 3 NMOS L = 1E-006 W = 1E-006 \nRD 10 1 0.976 \nRS 30 3 0.001 \nRG 20 2 160.6 \nCGS 2 3 2E-011 \nEGD 12 0 2 1 1 \nVFB 14 0 0 \nFFB 2 1 VFB 1 \nCGD 13 14 5.9E-011 \nR1 13 0 1 \nD1 12 13 DLIM \nDDG 15 14 DCGD \nR2 12 15 1 \nD2 15 0 DLIM \nDSD 3 10 DSUB \n.MODEL NMOS NMOS LEVEL = 3 VMAX = 1E+006 ETA = 0 VTO = 2.154 \n+ TOX = 6E-008 NSUB = 1E+016 KP = 0.4654 KAPPA = 1E-015 U0 = 400 \n.MODEL DCGD D CJO = 1.2E-011 VJ = 0.6 M = 0.6 \n.MODEL DSUB D IS = 6.808E-010 N = 1.576 RS = 0.1408 BV = 72 CJO = 8E-012 VJ = 0.8 M = 0.6474 \n.MODEL DLIM D IS = 0.0001 \n.ENDS\n*Diodes N7002 Spice Model v0 Last Revised 2017/2/9
